SOLUTION 1
  pH   7   charge
  Na   0.1
END